11

C         -0.59397        0.02755        0.39811
O          0.18188        0.60502        1.40527
P         -2.03255       -0.88078        1.16553
Mg         0.60943       -1.40149       -0.70853
N         -1.06617        1.06579       -0.51036
H          0.94242       -0.01681        1.52791
H         -1.19341       -1.92827        1.72376
H         -2.40665       -1.54460       -0.07232
H          1.59412       -0.65786       -1.98301
H         -1.68070        1.73256        0.01186
H         -1.62603        0.62041       -1.27117
