69

C        -12.19965       -1.95518       -2.73098
H        -12.22954       -1.60171       -3.78339
H        -12.94627       -1.38308       -2.13933
H        -12.49798       -3.02527       -2.71449
C        -10.79869       -1.78263       -2.12160
C        -10.45419       -0.30485       -2.07309
C        -10.34456        0.45808       -3.25282
C        -10.25434        0.33004       -0.83294
C        -10.03576        1.81934       -3.19015
C         -9.83555        2.43605       -1.95295
C         -9.94555        1.69193       -0.77653
C         -9.76924       -2.63363       -2.91250
H        -10.85066       -2.19280       -1.08825
H        -10.49587        0.00106       -4.22231
H        -10.33610       -0.22909        0.09046
H         -9.95193        2.39721       -4.10130
H         -9.59689        3.49037       -1.90669
H         -9.79165        2.17146        0.18167
H         -9.68065       -2.26804       -3.95811
H        -10.19843       -3.65903       -2.96419
C         -8.36400       -2.77590       -2.25452
C         -7.63637       -1.44476       -2.18424
C         -7.31704       -0.72777       -3.35433
C         -6.65648        0.50042       -3.27570
C         -6.30568        1.02859       -2.03097
C         -6.61499        0.32750       -0.86389
C         -7.27610       -0.90160       -0.93619
C         -7.54928       -3.84594       -3.03745
H         -8.53047       -3.17828       -1.23023
H         -7.58197       -1.11651       -4.32929
H         -6.41752        1.04497       -4.17972
H         -5.79559        1.98081       -1.97242
H         -6.34333        0.73890        0.09997
H         -7.50977       -1.42846       -0.02010
H         -7.33469       -3.49240       -4.06871
H         -8.21618       -4.73088       -3.13490
C         -6.25331       -4.37379       -2.35180
C         -5.20035       -3.29196       -2.19079
C         -4.66619       -2.62346       -3.30973
C         -3.70284       -1.62510       -3.14610
C         -3.25892       -1.28259       -1.86666
C         -3.77812       -1.93960       -0.74945
C         -4.74297       -2.93833       -0.90678
C         -5.72118       -5.58191       -3.17431
H         -6.55432       -4.76425       -1.35380
H         -4.99748       -2.87122       -4.30993
H         -3.30052       -1.11464       -4.01125
H         -2.51379       -0.50807       -1.74231
H         -3.43323       -1.67241        0.24144
H         -5.13461       -3.43413       -0.02791
H         -5.39648       -5.24982       -4.18363
H         -6.58269       -6.27012       -3.32433
C         -4.62240       -6.44636       -2.50119
C         -3.29997       -5.73391       -2.28367
C         -2.59175       -5.16068       -3.35789
C         -1.35875       -4.53898       -3.14152
C         -0.81345       -4.49102       -1.85639
C         -1.50384       -5.05930       -0.78397
C         -2.74131       -5.67436       -0.99279
H         -5.02058       -6.79880       -1.52319
H         -2.99203       -5.19421       -4.36273
H         -0.82181       -4.09943       -3.97193
H          0.14575       -4.01757       -1.69260
H         -1.07655       -5.02846        0.21028
H         -3.25536       -6.11753       -0.14910
C         -4.37219       -7.70403       -3.34892
H         -3.99684       -7.43859       -4.36018
H         -5.31172       -8.28559       -3.46494
H         -3.62546       -8.35862       -2.85011
