55

C         -4.77080        0.67980        0.12880
C         -3.50639       -0.12425        0.41797
C         -2.26053        0.59932       -0.11546
C         -0.94708       -0.13180        0.20863
C         -0.83466       -1.50832       -0.46464
C          0.51216       -2.15778       -0.15790
H         -5.65534        0.13861        0.52574
H         -4.89887        0.81591       -0.96624
H         -4.71519        1.67534        0.61804
H         -3.61336       -1.11861       -0.06247
H         -3.41408       -0.26257        1.51714
H         -2.20940        1.60256        0.36018
H         -2.34550        0.73952       -1.21561
H         -0.84841       -0.24159        1.31097
H         -0.11015        0.50585       -0.15253
H         -0.93511       -1.39396       -1.56582
H         -1.63363       -2.18568       -0.09859
H          1.34216       -1.52239       -0.53383
H          0.56988       -3.14881       -0.65548
H          0.62991       -2.30225        0.93731
H         -6.80669        4.43547       -0.91111
N         -6.04679        5.04050       -1.29782
H         -6.12210        5.97810       -0.84030
C         -4.76119        4.44286       -0.95296
C         -3.61405        5.27812       -1.52804
N         -2.32854        4.68945       -1.19848
C         -1.15752        5.24955       -1.60322
O         -1.16382        6.27789       -2.26775
C          0.14948        4.59142       -1.22318
C          1.37908        5.34670       -1.75397
C          2.67496        4.65002       -1.32570
C          3.98052        5.19615       -1.94501
C          4.41178        6.62881       -1.56680
C          3.70920        7.74869       -2.35851
C          4.22760        9.14015       -2.05870
O          3.74244       10.08183       -2.66493
O          5.19925        9.38976       -1.15021
H         -4.71216        3.41750       -1.37931
H         -4.66363        4.37712        0.15397
H         -3.66410        6.30703       -1.10884
H         -3.72328        5.33133       -2.63370
H         -2.29551        3.82289       -0.64006
H          0.15146        3.55612       -1.62871
H          0.20464        4.53878       -0.11398
H          1.34597        6.36437       -1.32628
H          1.32996        5.38657       -2.86432
H          2.60751        3.58572       -1.64355
H          2.75247        4.66928       -0.21639
H          3.97504        5.08083       -3.05076
H          4.77554        4.52362       -1.55282
H          5.48936        6.70456       -1.83452
H          4.31264        6.77152       -0.46896
H          2.62877        7.76766       -2.16147
H          3.85886        7.55649       -3.44317
H          5.63388        8.70846       -0.62209
