132
Coordinates from ORCA-job input
  C   -5.09372556241917      7.54146919373216      0.42491569539311
  C   -3.59620364479855      7.69104110812672      0.68557324861227
  C   -3.00035605676974      6.31203270860810      0.99207766392535
  N   -2.70909695587698      6.04208871621013      2.27626156392295
  C   -2.18260154492997      4.73978315421060      2.66775064789882
  C   -1.90213364324179      4.72554640410285      4.16442154708170
  N   -2.95688108132921      8.27820520799552     -0.47573664920187
  O   -2.78444084487428      5.49406713414988      0.10243295638095
  C   -3.19379570006899      3.63585759293048      2.31855492381131
  N   -2.65057642557076      2.55114213953572      1.73383037484884
  C   -3.48350501128603      1.46699208000854      1.27106544686231
  C   -3.93067630959768      1.69048268117385     -0.18131724200881
  O   -4.37273996509653      3.74404293549450      2.62265218689331
  C   -2.72355056966278      0.14937604451326      1.39337059038553
  N   -3.49425809313121     -0.95903773869350      1.37521959854315
  C   -2.93589949746868     -2.30302886152449      1.29782919776920
  C   -3.23561945840079     -3.11220008849421      2.55018515725830
  O   -1.50116461089362      0.10447752559240      1.45113397559336
  C   -3.52136498164208     -2.94868281701336      0.03513086567559
  N   -2.74656770076667     -2.86679700541049     -1.05504658374704
  C   -3.16838087675346     -3.37544533327258     -2.35401829617141
  C   -2.35848959514348     -2.71854500557708     -3.45749242640830
  O   -4.65539603006739     -3.43227851476284      0.03837097471224
  C   -2.97787381427917     -4.89800534694935     -2.33451489007536
  N   -4.03534781085841     -5.59527149944818     -1.86555601536702
  C   -3.96132588940993     -7.03654657212414     -1.62488661019012
  C   -3.94957128482613     -7.84282502491432     -2.91632701861883
  O   -1.91697960464772     -5.42378840572320     -2.64905416708842
  C   -2.75523653425074     -7.40495828209805     -0.72437146918199
  N   -2.58012392990626     -6.56223730430615      0.33137001087245
  C   -1.55043745109277     -6.62584739483332      1.36110779193103
  C   -0.27807355313645     -5.82547701687999      1.03951498051867
  N   -0.04748066364183     -5.49111618803251     -0.24593694169332
  C   1.11603448843121     -4.69407882035082     -0.59126398285572
  C   1.40964074536440     -4.78405499426619     -2.08413529912102
  O   -2.08022997244622     -8.39025664021366     -0.93831987792487
  O   0.47283318216365     -5.50448767997978      1.95290059067888
  C   0.87742287691413     -3.23548498006822     -0.19288285521724
  N   1.73096211640796     -2.69724137679000      0.67910212578594
  C   1.62596923171822     -1.30318828339152      1.08183521315215
  C   2.74233361937927     -0.96666531362819      2.06281414640159
  O   -0.04124845931359     -2.57412426026647     -0.68438854795916
  C   1.72839120708637     -0.40344404471600     -0.16381774596560
  N   0.85399279825930      0.62526537937863     -0.18043266132347
  C   0.70642307459816      1.44091522519174     -1.36258736602664
  C   -0.33956976671213      0.84071528347513     -2.31765167139871
  O   2.57417623457154     -0.60186039334690     -1.02160251839935
  C   0.30545041861089      2.86126143112616     -0.97254640398715
  N   0.58108858617688      3.79769545556279     -1.90318169577913
  C   0.08890837602335      5.17101519096932     -1.84694302762746
  C   1.22399803333263      6.17771993535223     -1.96595487939647
  O   -0.25246203411902      3.11475238217774      0.09005305472841
  C   -0.92130884178388      5.34582282583327     -2.98899518434808
  N   -2.21212276187524      5.34650976158761     -2.61782974701076
  C   -3.29191032778668      5.57046402243638     -3.57346097787482
  C   -4.56299283878962      4.88407635995688     -3.11043053883686
  O   -0.54401237661650      5.42793269617221     -4.15632500836899
  C   -3.47939104978304      7.09101929682762     -3.71457871725791
  N   -2.63297551587548      7.67376373501807     -4.57690790600768
  O   -4.30725674143307      7.70429619710566     -3.04073970660278
  H   -3.44583285008067      8.19444171161415     -1.36785102766123
  C   -1.63939295663595      8.60153015704695     -0.57171411773276
  H   -3.44978183337353      8.34061997311941      1.55381038580937
  H   -2.99007344434063      6.68745922287733      2.99557117266692
  H   -1.26291763346553      4.57015139160907      2.10568724794308
  H   -1.71737246759094      2.61565715067037      1.33761607325948
  H   -4.36521144057463      1.44500788002472      1.91377787102974
  H   -4.49805952267729     -0.86827136197437      1.36245730033162
  H   -1.86393916476858     -2.16754426139768      1.17690984868995
  H   -1.75232615655185     -2.64432057372534     -0.94807654193189
  H   -4.22986004363058     -3.14835407600083     -2.46316714224729
  H   -4.78858445482346     -5.05773600228992     -1.45867448676398
  H   -4.85876889669880     -7.28771759530204     -1.05313446054213
  H   -3.19453173978743     -5.76448416220929      0.37379898451136
  H   -1.96838272660059     -6.11345995978990      2.22859271221543
  C   -1.17719741808605     -8.03988302225826      1.81234005446062
  H   -0.70485637952094     -5.72048493862832     -0.98111370983025
  H   1.96069075888931     -5.08097811614713     -0.01815511168746
  H   2.41857520386933     -3.28513865033700      1.11889867830490
  H   0.65271944515315     -1.14772603590819      1.55046219689903
  H   0.08383830567129      0.62956559085887      0.47925701393435
  H   1.67503824655449      1.45523237313790     -1.86383590416554
  H   1.02421145021143      3.51264280628080     -2.76311385895881
  H   -0.41831225376579      5.26355820067348     -0.88916975663697
  H   -2.44794218237860      5.38779844797762     -1.62717039614094
  H   -2.96230103961749      5.16187776254847     -4.52913496490986
  H   -5.54096956792437      8.52119573905422      0.25726177968774
  H   -5.25850856623718      6.93085404001086     -0.46209423806389
  H   -5.58422821103759      7.06493644990093      1.27369083386506
  H   -1.46973370484043      3.76776452877424      4.45218404741912
  H   -1.19581472935212      5.51348597419312      4.43300581817137
  H   -2.82881710016687      4.86371561546671      4.72439389397860
  H   -4.58237742363782      0.88760093525350     -0.52963353571785
  H   -4.46851153792096      2.63481594904704     -0.24430325705658
  H   -3.06040637057400      1.74521960483417     -0.83708420929693
  H   -2.73723395617493     -4.08021665309459      2.50737905644411
  H   -2.86573355674361     -2.58289146056531      3.42800964534755
  H   -4.30802428357286     -3.28020536121832      2.65291388592242
  H   -2.66488326258485     -3.09958295485121     -4.43165469617801
  H   -2.51034580164779     -1.63936793838248     -3.43659144454257
  H   -1.29756342518810     -2.92656440366248     -3.32767228297641
  H   -3.92646479719933     -8.90696816159601     -2.69006946232678
  H   -4.84496475342075     -7.61777262028821     -3.49673418748799
  H   -3.06733357586240     -7.60154587036082     -3.50519462380175
  H   2.26515698095562     -4.15697259305237     -2.33613920388642
  H   1.63437368086282     -5.81567065676920     -2.35589085998575
  H   0.54840659114685     -4.45509090183609     -2.66323629682735
  H   2.64697266800922      0.06683330618535      2.39435290534717
  H   2.69012712119097     -1.61318652004276      2.94119485025677
  H   3.71515319421462     -1.08700000053177      1.58325056381124
  H   -0.43544986274327      1.43132807747553     -3.23006843814371
  H   -0.04005470955333     -0.17313030278469     -2.57892530413694
  H   -1.31350294536134      0.79654739705202     -1.82681412321912
  H   0.82730945829709      7.19249261114584     -1.94215984221386
  H   1.92847683341138      6.04188877364226     -1.14434967685493
  H   1.74938332434428      6.04403438836506     -2.91232974769346
  H   -5.36912452123540      5.05719731991932     -3.82330212848059
  H   -4.39376028525776      3.81094596124972     -3.02030718464958
  H   -4.88034314809882      5.27360574189049     -2.14484001673123
  H   -0.51280799866487     -7.95687652253526      2.67125120775941
  H   -2.07406997532194     -8.58546156642136      2.10650855442508
  H   -0.68522854384776     -8.59531994874495      1.01987285052094
  C   -2.51833422571906      9.11905441394117     -4.68418664320867
  H   -1.86509778304438      7.10149080140817     -4.90604097705941
  H   -2.03480781309040      9.36483486908445     -5.62854081721063
  H   -3.51461655381509      9.55637966739195     -4.66615113958163
  H   -1.93997606884956      9.52356478784758     -3.85225726975567
  O   -1.12333204394784      8.87094855483130     -1.64752325623716
  C   -0.82969808582403      8.63019959465491      0.70907311300105
  H   -1.35551522798229      9.13464737610952      1.52096429562365
  H   -0.60564012085549      7.61410748035369      1.04015049000417
  H   0.10563127282066      9.14413694770347      0.50623211029763
