124

C         -6.57111       -0.45035       -0.01015
C         -5.37709        0.49969        0.00976
C         -4.05611       -0.27721        0.02824
C         -2.85229        0.67864        0.03879
C         -1.52871       -0.04768        0.05909
C         -0.24906        0.75329        0.05646
C          1.00628       -0.13373        0.06722
C          2.28243        0.71490        0.06076
C          3.52993       -0.17632        0.06607
C          4.80449        0.66236        0.05952
O         -1.49315       -1.26973        0.07631
H         -7.51378        0.13630       -0.02085
H         -6.56460       -1.09860        0.89200
H         -6.53904       -1.08831       -0.91878
H         -5.44421        1.14383        0.91356
H         -5.41861        1.14657       -0.89369
H         -4.00045       -0.92494       -0.87485
H         -4.02370       -0.92111        0.93518
H         -2.90966        1.33149        0.93659
H         -2.88898        1.31776       -0.87004
H         -0.24181        1.41054        0.95291
H         -0.23562        1.39124       -0.85382
H          0.99915       -0.78872       -0.83242
H          0.99684       -0.77380        0.97748
H          2.29321        1.36952        0.96027
H          2.29290        1.35576       -0.84861
H          3.52602       -0.82997       -0.83353
H          3.52695       -0.81906        0.97353
H          4.84284        1.29849       -0.85043
H          5.69006       -0.00749        0.06303
H          4.84434        1.31104        0.96053
C         -6.47214       -3.53791        0.06375
C         -5.21123       -4.39226       -0.02679
C         -3.95142       -3.53522        0.13802
C         -2.68499       -4.39321        0.04679
C         -0.27058       -4.34731        0.16945
C          0.94541       -3.44545        0.40772
C          2.24951       -4.24999        0.36552
C          3.46066       -3.34141        0.60745
C          4.76279       -4.13518        0.55222
N         -1.49882       -3.54652        0.20687
H         -7.36790       -4.18228       -0.05943
H         -6.47493       -2.76938       -0.73786
H         -6.52762       -3.03520        1.05283
H         -5.19125       -4.89833       -1.01673
H         -5.24390       -5.16714        0.76990
H         -3.97472       -3.02659        1.12716
H         -3.92827       -2.76062       -0.65999
H         -2.65499       -4.90823       -0.94046
H         -2.71190       -5.15923        0.85388
H         -0.30170       -5.12320        0.96699
H         -0.17400       -4.84937       -0.82014
H          0.84320       -2.95451        1.40075
H          0.97773       -2.65854       -0.37756
H          2.34739       -4.73467       -0.63110
H          2.22133       -5.04119        1.14716
H          3.37379       -2.86084        1.60643
H          3.49286       -2.54633       -0.16899
H          4.76645       -4.92676        1.33169
H          5.62157       -3.45455        0.73154
H          4.88479       -4.60623       -0.44655
H         -1.53795       -2.57110        0.08346
C          0.40040       10.31780        2.11949
C          1.57786       11.28881        2.10643
C          2.91202       10.53475        2.12135
C          4.10068       11.50971        2.09846
C          5.43510       10.80229        2.11239
C          6.70432       11.61937        2.07647
C          7.96946       10.74574        2.08129
C          9.23714       11.60571        2.04167
C         10.49241       10.72529        2.03940
C         11.75965       11.57386        2.00128
O          5.48786        9.58235        2.15089
H         -0.55248       10.88778        2.11023
H          0.42963        9.68663        3.03326
H          0.43195        9.66297        1.22280
H          1.51134       11.94820        2.99922
H          1.51353       11.91825        1.19206
H          2.96633        9.87156        1.22945
H          2.96694        9.90806        3.03916
H          4.04571       12.17729        2.98542
H          4.04160       12.13186        1.17920
H          6.71760       12.29096        2.96196
H          6.69612       12.24211        1.15578
H          7.95491       10.07693        1.19202
H          7.98099       10.11986        3.00131
H          9.25625       12.27294        2.93159
H          9.22713       12.23342        1.12319
H         10.47994       10.05959        1.14884
H         10.50935       10.09519        2.95551
H         11.77829       12.19826        1.08261
H         12.65070       10.91133        1.99955
H         11.80842       12.23436        2.89312
C          0.66138        7.40571        2.24074
C          1.88702        6.51169        2.07510
C          3.18028        7.32253        2.20910
C          4.41257        6.42668        2.04569
C          6.95086        6.41140        2.07432
C          8.19155        7.28849        2.27552
C          9.47791        6.46246        2.16421
C         10.71414        7.34575        2.37148
C         11.99885        6.53161        2.24814
C          5.68492        7.26187        2.17831
H         -0.26082        6.79604        2.13818
H          0.65306        8.19701        1.46134
H          0.66413        7.88230        3.24431
H          1.84938        6.03196        1.07261
H          1.86063        5.71713        2.85240
H          3.21078        7.80623        3.21095
H          3.19536        8.11684        1.42986
H          4.39345        5.93763        1.04676
H          4.40394        5.64150        2.83301
H          6.92938        5.62177        2.85696
H          6.98902        5.92752        1.07351
H          8.14327        7.76332        3.28081
H          8.20649        8.08912        1.50314
H          9.52539        5.99465        1.15595
H          9.46806        5.65772        2.93233
H         10.67728        7.80932        3.38157
H         10.72823        8.15426        1.60861
H         12.02090        5.72586        3.01262
H         12.87596        7.19453        2.40378
H         12.07141        6.07727        1.23692
H          5.47185        8.28805        1.94349
