282

C        -12.92504        0.01126        0.05661
C        -11.64027        0.83391        0.01799
C        -10.40419       -0.07275        0.02239
C         -9.11425        0.75559       -0.01674
C         -7.87975       -0.15377       -0.00899
C         -6.58684        0.67004       -0.04622
C         -5.35634       -0.24470       -0.03024
C         -4.05925        0.57259       -0.06133
C         -2.83358       -0.34846       -0.03192
C         -1.53222        0.46216       -0.05302
C         -0.31109       -0.46439       -0.00779
C          0.99353        0.34111       -0.01855
C          2.21147       -0.58883        0.03981
C          3.51714        0.21441        0.03530
C          4.73046       -0.70893        0.09964
H        -13.80280        0.69129        0.05297
H        -12.95880       -0.60858        0.97793
H        -12.98509       -0.65229       -0.83233
H        -11.61589        1.50330        0.90551
H        -11.64194        1.45940       -0.90127
H        -10.43720       -0.74262       -0.86523
H        -10.41144       -0.69753        0.94291
H         -9.08157        1.42605        0.87042
H         -9.10568        1.37940       -0.93778
H         -7.91248       -0.82519       -0.89541
H         -7.89061       -0.77687        0.91259
H         -6.55496        1.34273        0.83925
H         -6.57226        1.29128       -0.96890
H         -5.38715       -0.91829       -0.91508
H         -5.37527       -0.86535        0.89286
H         -4.03067        1.24816        0.82206
H         -4.03467        1.19055       -0.98599
H         -2.85981       -1.02469       -0.91489
H         -2.86394       -0.96607        0.89291
H         -1.50919        1.14073        0.82821
H         -1.49555        1.07673       -0.97956
H         -0.33136       -1.14349       -0.88872
H         -0.35326       -1.07873        0.91876
H          1.01092        1.02221        0.86089
H          1.04070        0.95288       -0.94649
H          2.19628       -1.27054       -0.83923
H          2.16126       -1.20023        0.96795
H          3.53921        0.89664        0.91306
H          3.57789        0.82404       -0.89257
H          4.70497       -1.31488        1.03046
H          5.66050       -0.10236        0.09565
H          4.74495       -1.38906       -0.77857
C        -12.94587       -4.23224        0.40568
C        -11.66232       -3.40694        0.42143
C        -10.42463       -4.31109        0.39742
C         -9.13592       -3.48007        0.41300
C         -7.89985       -4.38708        0.39217
C         -6.60818       -3.56067        0.40947
C         -5.37619       -4.47345        0.39657
C         -4.08040       -3.65384        0.41975
C         -2.85339       -4.57357        0.41990
C         -1.55344       -3.76108        0.45278
C         -0.33114       -4.68707        0.46843
C          0.97196       -3.88018        0.51143
C          2.19092       -4.81019        0.53999
C          3.49500       -4.00585        0.58914
C          4.70925       -4.92955        0.62394
H        -13.82483       -3.55401        0.42393
H        -12.98928       -4.89522        1.29604
H        -12.99415       -4.85287       -0.51444
H        -11.64969       -2.78045        1.33998
H        -11.65435       -2.73846       -0.46703
H        -10.44588       -4.93806       -0.52136
H        -10.44153       -4.97893        1.28706
H         -9.11499       -2.85249        1.33134
H         -9.11769       -2.81317       -0.47719
H         -7.92083       -5.01565       -0.52546
H         -7.92037       -5.05330        1.28292
H         -6.58803       -2.93079        1.32623
H         -6.58392       -2.89625       -0.48240
H         -5.39527       -5.10426       -0.51957
H         -5.40480       -5.13730        1.28886
H         -4.06354       -3.02099        1.33451
H         -4.04611       -2.99259       -0.47416
H         -2.86791       -5.20710       -0.49445
H         -2.89346       -5.23449        1.31392
H         -1.54210       -3.12514        1.36548
H         -1.50704       -3.10312       -0.44301
H         -0.33971       -5.32355       -0.44395
H         -0.38304       -5.34481        1.36418
H          0.97768       -3.24164        1.42238
H          1.02888       -3.22494       -0.38577
H          2.18741       -5.44937       -0.37056
H          2.13095       -5.46508        1.43737
H          3.50540       -3.36609        1.49852
H          3.56551       -3.35273       -0.30793
H          4.67396       -5.57909        1.52454
H          5.63810       -4.32221        0.65980
H          4.73541       -5.56715       -0.28537
C         -6.69509        4.29880       -0.04525
C         -5.41032        5.12144       -0.08387
C         -4.17424        4.21479       -0.07947
C         -2.88430        5.04312       -0.11860
C         -1.64981        4.13377       -0.11086
C         -0.35689        4.95757       -0.14809
C          0.87361        4.04283       -0.13211
C          2.17070        4.86012       -0.16319
C          3.39636        3.93907       -0.13378
C          4.69773        4.74969       -0.15489
C          5.91886        3.82314       -0.10965
C          7.22347        4.62865       -0.12041
C          8.44142        3.69870       -0.06205
C          9.74708        4.50195       -0.06656
C         10.96040        3.57860       -0.00222
H         -7.57285        4.97882       -0.04889
H         -6.72885        3.67896        0.87607
H         -6.75514        3.63524       -0.93419
H         -5.38594        5.79083        0.80365
H         -5.41199        5.74693       -1.00314
H         -4.20725        3.54491       -0.96709
H         -4.18150        3.59000        0.84105
H         -2.85162        5.71358        0.76856
H         -2.87573        5.66693       -1.03964
H         -1.68254        3.46234       -0.99727
H         -1.66066        3.51066        0.81073
H         -0.32501        5.63026        0.73739
H         -0.34232        5.57881       -1.07076
H          0.84280        3.36924       -1.01694
H          0.85468        3.42218        0.79100
H          2.19928        5.53569        0.72019
H          2.19528        5.47808       -1.08786
H          3.37013        3.26284       -1.01675
H          3.36600        3.32146        0.79105
H          4.72076        5.42826        0.72635
H          4.73439        5.36426       -1.08143
H          5.89859        3.14405       -0.99058
H          5.87669        3.20881        0.81690
H          7.24087        5.30974        0.75902
H          7.27064        5.24041       -1.04836
H          8.42623        3.01699       -0.94109
H          8.39121        3.08730        0.86609
H          9.76915        5.18418        0.81119
H          9.80784        5.11158       -0.99443
H         10.93492        2.97266        0.92860
H         11.89044        4.18517       -0.00621
H         10.97490        2.89848       -0.88043
C        -21.29557        9.40337       -1.46287
C        -20.01080       10.22602       -1.50150
C        -18.77472        9.31936       -1.49710
C        -17.48478       10.14770       -1.53623
C        -16.25029        9.23834       -1.52848
C        -14.95737       10.06215       -1.56571
C        -13.72687        9.14741       -1.54973
C        -12.42978        9.96470       -1.58081
C        -11.20412        9.04365       -1.55141
C         -9.90275        9.85427       -1.57251
C         -8.68162        8.92772       -1.52728
C         -7.37701        9.73322       -1.53804
C         -6.15906        8.80328       -1.47968
C         -4.85339        9.60652       -1.48419
C         -3.64008        8.68318       -1.41985
H        -22.17333       10.08339       -1.46652
H        -21.32933        8.78353       -0.54156
H        -21.35562        8.73982       -2.35182
H        -19.98642       10.89541       -0.61398
H        -20.01247       10.85150       -2.42076
H        -18.80773        8.64949       -2.38472
H        -18.78198        8.69458       -0.57658
H        -17.45210       10.81816       -0.64907
H        -17.47621       10.77151       -2.45726
H        -16.28301        8.56692       -2.41489
H        -16.26114        8.61523       -0.60690
H        -14.92549       10.73483       -0.68023
H        -14.94280       10.68339       -2.48838
H        -13.75768        8.47382       -2.43457
H        -13.74580        8.52676       -0.62663
H        -12.40120       10.64026       -0.69743
H        -12.40520       10.58265       -2.50548
H        -11.23035        8.36741       -2.43438
H        -11.23448        8.42603       -0.62658
H         -9.87972       10.53284       -0.69127
H         -9.86609       10.46883       -2.49905
H         -8.70189        8.24862       -2.40821
H         -8.72379        8.31338       -0.60073
H         -7.35961       10.41432       -0.65860
H         -7.32984       10.34498       -2.46598
H         -6.17425        8.12156       -2.35872
H         -6.20927        8.19188       -0.55154
H         -4.83133       10.28875       -0.60643
H         -4.79264       10.21615       -2.41206
H         -3.66556        8.07723       -0.48903
H         -2.71004        9.28974       -1.42384
H         -3.62558        8.00305       -2.29806
C        -10.00626       -2.65298       -4.28406
C         -8.72149       -1.83034       -4.32268
C         -7.48541       -2.73699       -4.31828
C         -6.19547       -1.90866       -4.35741
C         -4.96098       -2.81801       -4.34967
C         -3.66806       -1.99421       -4.38689
C         -2.43756       -2.90895       -4.37092
C         -1.14047       -2.09166       -4.40200
C          0.08519       -3.01271       -4.37259
C          1.38655       -2.20209       -4.39369
C          2.60768       -3.12864       -4.34846
C          3.91230       -2.32313       -4.35922
C          5.13025       -3.25308       -4.30086
C          6.43591       -2.44983       -4.30537
C          7.64923       -3.37318       -4.24103
H        -10.88403       -1.97296       -4.28770
H        -10.04002       -3.27282       -3.36274
H        -10.06631       -3.31654       -5.17300
H         -8.69711       -1.16095       -3.43516
H         -8.72316       -1.20485       -5.24195
H         -7.51842       -3.40687       -5.20590
H         -7.49267       -3.36178       -3.39776
H         -6.16279       -1.23820       -3.47025
H         -6.18690       -1.28485       -5.27845
H         -4.99371       -3.48944       -5.23608
H         -4.97183       -3.44112       -3.42808
H         -3.63618       -1.32152       -3.50142
H         -3.65349       -1.37297       -5.30957
H         -2.46837       -3.58254       -5.25575
H         -2.45649       -3.52960       -3.44781
H         -1.11189       -1.41609       -3.51862
H         -1.11589       -1.47370       -5.32667
H          0.05896       -3.68894       -5.25556
H          0.05483       -3.63032       -3.44776
H          1.40959       -1.52352       -3.51246
H          1.42322       -1.58752       -5.32024
H          2.58742       -3.80774       -5.22939
H          2.56552       -3.74298       -3.42191
H          3.92970       -1.64204       -3.47979
H          3.95947       -1.71137       -5.28717
H          5.11506       -3.93479       -5.17990
H          5.08004       -3.86448       -3.37272
H          6.45798       -1.76760       -3.42762
H          6.49667       -1.84020       -5.23324
H          7.62375       -3.97912       -3.31021
H          8.57927       -2.76661       -4.24502
H          7.66373       -4.05330       -5.11924
C        -12.81100       -0.03209        4.12909
C        -11.52623        0.79056        4.09047
C        -10.29015       -0.11610        4.09487
C         -9.00021        0.71224        4.05574
C         -7.76571       -0.19712        4.06348
C         -6.47280        0.62669        4.02625
C         -5.24230       -0.28805        4.04223
C         -3.94521        0.52924        4.01115
C         -2.71954       -0.39181        4.04055
C         -1.41818        0.41881        4.01945
C         -0.19705       -0.50774        4.06469
C          1.10757        0.29776        4.05392
C          2.32551       -0.63218        4.11228
C          3.63118        0.17106        4.10777
C          4.84450       -0.75228        4.17212
H        -13.68876        0.64794        4.12544
H        -12.84475       -0.65193        5.05040
H        -12.87105       -0.69564        3.24014
H        -11.50185        1.45995        4.97799
H        -11.52789        1.41605        3.17120
H        -10.32316       -0.78597        3.20724
H        -10.29740       -0.74088        5.01538
H         -8.96753        1.38270        4.94290
H         -8.99164        1.33605        3.13470
H         -7.79844       -0.86854        3.17707
H         -7.77657       -0.82022        4.98506
H         -6.44092        1.29938        4.91173
H         -6.45822        1.24793        3.10358
H         -5.27311       -0.96164        3.15740
H         -5.26123       -0.90870        4.96534
H         -3.91663        1.20481        4.89453
H         -3.92063        1.14720        3.08648
H         -2.74577       -1.06804        3.15759
H         -2.74990       -1.00942        4.96538
H         -1.39514        1.09738        4.90069
H         -1.38151        1.03338        3.09291
H         -0.21731       -1.18684        3.18376
H         -0.23921       -1.12208        4.99124
H          1.12497        0.97886        4.93336
H          1.15474        0.90953        3.12598
H          2.31032       -1.31389        3.23324
H          2.27530       -1.24358        5.04042
H          3.65325        0.85329        4.98553
H          3.69193        0.78070        3.17991
H          4.81901       -1.35823        5.10293
H          5.77454       -0.14571        4.16812
H          4.85900       -1.43241        3.29390