11

C         -3.71857       -0.43328       -0.00183
C         -2.32800        0.19318       -0.04112
C         -1.23825       -0.86820        0.06965
H         -4.48759        0.36352       -0.08422
H         -3.86974       -0.97703        0.95506
H         -3.84660       -1.14129       -0.84833
H         -2.22655        0.91046        0.80170
H         -2.20306        0.74523       -0.99741
H         -1.33429       -1.42133        1.02824
H         -0.24097       -0.38087        0.03799
H         -1.31114       -1.58553       -0.77550
