65

C         -4.42713       -0.14732       -0.61151
C         -3.56080        0.59308        0.46301
C         -2.02634        0.23743        0.39737
C         -1.63778       -1.26159        0.43601
C         -1.03118       -1.75946       -0.91372
C         -0.80538       -3.30754       -1.02675
C         -2.07127       -4.04614       -1.57621
C         -3.37072       -3.66996       -0.86619
C         -4.63338       -4.20194       -1.53025
C         -5.94534       -3.64288       -0.91521
C         -6.15142       -2.08866       -1.02233
C         -5.28192       -1.28900        0.01188
C         -3.77637        2.14040        0.35204
C         -5.24923        2.55878        0.52439
C         -5.54216        3.87153        0.59333
C         -4.40746        4.82173        0.62565
C         -3.17909        4.31048        0.84066
C         -3.04062        2.81533        1.11602
C         -7.62197       -1.66598       -0.86655
C         -7.99592       -0.34302       -1.18311
C         -9.32066        0.08242       -1.05037
C        -10.29906       -0.80216       -0.59933
C         -9.95472       -2.11479       -0.28029
C         -8.63177       -2.54790       -0.41074
C         -0.17020       -3.89996        0.23244
C          1.07136       -3.39191        0.66623
C          1.70110       -3.90951        1.80146
C          1.10552       -4.94540        2.52101
C         -0.11950       -5.46671        2.10499
C         -0.75517       -4.95368        0.97001
H         -3.78660       -0.47788       -1.45259
H         -5.13774        0.54741       -1.09037
H         -3.93274        0.30079        1.47247
H         -1.56806        0.70219        1.29818
H         -1.54085        0.72642       -0.47586
H         -2.47218       -1.85092        0.84291
H         -0.82809       -1.39238        1.18660
H         -0.05224       -1.24146       -1.01341
H         -1.63373       -1.42891       -1.78630
H         -0.05766       -3.46981       -1.83559
H         -1.91376       -5.14555       -1.60158
H         -2.19509       -3.72043       -2.63423
H         -3.42844       -2.59777       -1.00503
H         -3.35486       -3.94650        0.20759
H         -4.63841       -5.31094       -1.45574
H         -4.61718       -3.92893       -2.60892
H         -6.06505       -3.97598        0.13878
H         -6.73472       -4.13231       -1.52665
H         -5.85864       -1.83612       -2.06587
H         -4.65038       -1.97224        0.60014
H         -5.93638       -0.86520        0.80631
H         -6.05324        1.82975        0.55396
H         -6.56897        4.21907        0.64286
H         -4.56062        5.88828        0.49768
H         -2.30756        4.95591        0.86782
H         -7.26890        0.36722       -1.54244
H         -9.58865        1.10118       -1.29940
H        -11.32434       -0.47065       -0.49674
H        -10.71497       -2.80029        0.07189
H         -8.41855       -3.57138       -0.14071
H          1.55803       -2.59286        0.12187
H          2.65403       -3.50842        2.12151
H          1.59537       -5.34702        3.39872
H         -0.57778       -6.27430        2.66161
H         -1.69588       -5.39630        0.68442
