24

C         -3.77984       -0.30566       -0.16664
C         -2.88831        0.79019        0.44682
C         -1.52752        0.73189       -0.27301
C         -0.81975       -0.59501        0.03942
C         -1.67488       -1.85660       -0.21852
C         -3.19605       -1.71575        0.03706
C         -3.53899        2.14137        0.25621
C         -4.91046        2.63092        0.08247
C         -4.45305        3.87711       -0.01865
C         -3.08150        3.38742        0.15646
H         -3.88794       -0.08819       -1.25102
H         -4.79770       -0.28678        0.28587
H         -2.73978        0.62943        1.54005
H         -0.86776        1.55588        0.08114
H         -1.68161        0.86152       -1.36661
H         -0.52847       -0.56500        1.10732
H          0.11878       -0.66846       -0.55959
H         -1.29122       -2.66419        0.45019
H         -1.50323       -2.21818       -1.25044
H         -3.41500       -2.02786        1.07521
H         -3.73743       -2.42380       -0.63600
H         -5.90642        2.20181        0.04770
H         -4.93641        4.83629       -0.17363
H         -2.08993        3.82703        0.18188
